425
Drawn from 1a_delta_DFT_TightSCF.xyz geometry by changing N-position
C     -3.54022   -2.13057    3.08059
C     -4.32595   -3.14913    3.61407
N     -2.21010   -2.49901    3.23740
C     -2.14083   -3.73064    3.87770
C     -3.44495   -4.15713    4.11502
C     -4.61379    1.76707    1.64839
C     -3.68177    0.98415    0.95102
C     -5.23959    1.19504    2.76813
C     -4.90546   -0.07298    3.20748
C     -3.35666   -0.29339    1.37933
C     -3.93904   -0.83541    2.53470
C      0.08878   -3.63741    5.01638
C     -0.89743   -4.35675    4.32262
C      1.18440   -4.28284    5.56400
C      1.34361   -5.67398    5.45172
C     -0.71110   -5.73779    4.15875
C      0.38112   -6.38207    4.71538
C     -3.85343   -5.35855    4.85164
C     -3.25370   -5.69014    6.07434
C     -4.90699   -6.16432    4.39756
C     -5.37885   -7.22094    5.16060
C     -3.71523   -6.75468    6.82922
C     -4.80915   -7.52646    6.40567
C     -6.60759   -2.70814    2.67618
C     -7.97307   -2.54616    2.85051
C     -5.78673   -3.11108    3.73863
C     -6.39773   -3.41540    4.96300
C     -8.57963   -2.80058    4.08992
C     -7.76384   -3.27017    5.13149
C      0.15864    0.34457    3.29056
C     -0.99908   -0.39492    3.46638
C      1.27056   -0.19106    2.62149
C      1.14698   -1.47093    2.06144
C     -1.07785   -1.68804    2.95027
C     -0.01666   -2.20967    2.21251
H     -3.22422    1.36992    0.04597
H     -5.95516    1.77380    3.34349
H     -5.37325   -0.47181    4.10183
H     -2.64129   -0.87970    0.81220
H     -0.02225   -2.56793    5.16590
H      1.89405   -3.70028    6.14372
H     -1.44274   -6.30683    3.59521
H      0.50196   -7.44844    4.55613
H     -2.43641   -5.08247    6.45012
H     -5.36540   -5.94797    3.43821
H     -6.18874   -7.83144    4.77489
H     -3.25512   -6.95235    7.79274
H     -6.16236   -2.50988    1.70669
H     -8.58229   -2.24093    2.00594
H     -5.78567   -3.73553    5.80016
H     -8.19413   -3.47011    6.10793
H      0.21602    1.33223    3.73725
H     -1.83292    0.01635    4.02586
H      1.96520   -1.88815    1.48436
H     -0.09889   -3.20070    1.77981
C    -18.72896   -0.52628    1.61758
C    -18.49871   -1.39713    2.67398
C    -17.96971    0.63247    1.52661
C    -17.00232    0.88801    2.49999
N    -16.77212    0.04019    3.52047
C    -17.50902   -1.06915    3.59483
C    -16.14881    2.10071    2.47129
C    -16.45463    3.22779    1.69667
C    -15.59090    4.31498    1.71939
C    -14.24622    3.11604    3.28207
N    -15.06419    2.06139    3.25456
N    -13.08407    3.08985    4.08224
N    -13.07448    2.18393    4.95971
C    -11.86165    2.06181    5.66019
C    -11.77232    0.97649    6.53943
C    -10.74152    2.88612    5.45599
C     -9.54500    2.57280    6.06719
C    -10.55819    0.64796    7.11770
C     -9.41618    1.42036    6.86507
C    -14.45205    4.26221    2.51066
H    -19.48360   -0.74673    0.87029
H    -19.06669   -2.31377    2.78369
H    -18.12011    1.31194    0.69661
H    -17.29878   -1.73238    4.43145
H    -17.35323    3.26328    1.09398
H    -15.80769    5.19549    1.12420
H    -12.66127    0.38273    6.72205
H    -10.82264    3.73897    4.79321
H     -8.66749    3.18532    5.88335
H    -10.48492   -0.21477    7.77173
H    -13.73966    5.07699    2.56118
C    -18.43005    3.69603    7.37684
C    -17.59894    4.31656    6.45421
C    -18.30905    2.32705    7.57349
C    -17.35947    1.61681    6.83667
N    -16.54744    2.21874    5.94750
C    -16.67498    3.53443    5.76902
C    -17.16518    0.15503    6.99430
C    -18.11331   -0.67361    7.60963
C    -17.84334   -2.02995    7.73510
C    -15.77675   -1.64197    6.60978
N    -16.02382   -0.33477    6.49390
N    -14.56716   -2.18015    6.12455
N    -13.95476   -1.44612    5.30163
C    -12.67702   -1.91385    4.94547
C    -11.98192   -1.16841    3.98615
C    -12.04474   -3.00532    5.56452
C    -10.73611   -3.30509    5.25375
C    -10.66710   -1.47753    3.68036
C    -10.00697   -2.53641    4.32421
C    -16.64549   -2.53146    7.24670
H    -19.15815    4.26803    7.94178
H    -17.65736    5.38307    6.26981
H    -18.93339    1.83077    8.30632
H    -16.00491    3.98988    5.04268
H    -19.04915   -0.27204    7.97688
H    -18.56264   -2.68713    8.21185
H    -12.48053   -0.32355    3.52112
H    -12.59226   -3.59339    6.29103
H    -10.26118   -4.15903    5.72566
H    -10.12553   -0.85713    2.97455
H    -16.37607   -3.57778    7.32741
Li   -15.22689    0.79131    4.90987
C     -2.93148    0.35103    8.02454
C     -4.14047   -0.31583    8.39478
C     -1.86666   -0.45529    8.42028
C     -2.40031   -1.58573    9.02877
N     -3.78730   -1.51400    9.01070
C     -2.53987    3.93344    5.69191
C     -3.46087    2.93667    5.34411
C     -1.77303    3.75489    6.85102
C     -1.92589    2.61964    7.63525
C     -3.58903    1.78995    6.11013
C     -2.82128    1.60529    7.26850
C     -0.78073   -3.32459    8.53167
C     -1.64517   -2.71990    9.44240
C     -0.03184   -4.42301    8.91745
C     -0.16373   -4.96441   10.20235
C     -1.77998   -3.23602   10.72944
C     -1.05834   -4.36603   11.09679
C     -4.65985   -2.59443    9.47161
C     -4.43720   -3.92441    9.08522
C     -5.80141   -2.30826   10.23549
C     -6.70600   -3.30665   10.56549
C     -5.32320   -4.92547    9.44444
C     -6.48201   -4.63364   10.17507
C     -6.42788   -0.75904    7.51517
C     -7.70045   -0.34043    7.16626
C     -5.50532    0.12954    8.08482
C     -5.90748    1.45719    8.28775
C     -8.09186    0.99317    7.34325
C     -7.17260    1.88579    7.90948
C      1.33277    0.33921    6.64017
C     -0.01083    0.18849    6.92855
C      2.31391   -0.00504    7.57941
C      1.89763   -0.46545    8.83495
C     -0.43496   -0.27403    8.18356
C      0.54765   -0.57658    9.13973
H     -4.03657    3.04161    4.42946
H     -1.07650    4.52941    7.15781
H     -1.34011    2.50818    8.54192
H     -4.27605    1.01037    5.79996
H     -0.70028   -2.93309    7.52433
H      0.63071   -4.90029    8.20189
H     -2.45049   -2.75647   11.43438
H     -1.16249   -4.76527   12.10079
H     -3.58504   -4.17048    8.46267
H     -5.98087   -1.28853   10.55918
H     -7.58228   -3.06126   11.15765
H     -5.15815   -5.94013    9.09538
H     -6.12875   -1.78315    7.32228
H     -8.38542   -1.03486    6.68935
H     -5.21623    2.15880    8.74303
H     -7.46316    2.91763    8.08260
H      1.63965    0.66238    5.65015
H     -0.75074    0.40659    6.16827
H      2.63844   -0.70508    9.59179
H      0.25192   -0.90457   10.13045
C     -4.54521   10.57603   -4.33971
C     -5.67151   10.34303   -3.56244
C     -3.29070   10.39322   -3.77381
C     -3.19996    9.98457   -2.44204
N     -4.29163    9.74963   -1.68966
C     -5.49008    9.92951   -2.24669
C     -1.89819    9.76580   -1.76569
C     -0.68770   10.26426   -2.26625
C      0.48651   10.00265   -1.57263
C     -0.81994    8.83630    0.04618
N     -1.95122    9.07234   -0.62200
N     -0.84508    8.08496    1.24093
N     -1.99017    7.94915    1.75121
C     -2.03497    7.08193    2.85810
C     -3.31161    6.77776    3.34413
C     -0.90976    6.45242    3.41788
C     -1.08168    5.48728    4.38885
C     -3.47701    5.77856    4.28824
C     -2.36801    5.09394    4.80328
C      0.43334    9.26071   -0.40091
H     -4.63885   10.88970   -5.37379
H     -6.67031   10.47207   -3.96324
H     -2.40182   10.54951   -4.37269
H     -6.35184    9.73293   -1.61207
H     -0.66025   10.85434   -3.17348
H      1.43398   10.37701   -1.94510
H     -4.16322    7.31205    2.93749
H      0.07835    6.71097    3.05722
H     -0.21709    4.97567    4.80155
H     -4.47207    5.52119    4.63629
H      1.31810    9.01988    0.17622
C     -3.19493   13.90319    1.85480
C     -2.04135   13.17539    1.59704
C     -4.42686   13.27863    1.71424
C     -4.46848   11.94138    1.31557
N     -3.35000   11.23212    1.07262
C     -2.17379   11.84529    1.21209
C     -5.74372   11.20290    1.14771
C     -6.98610   11.84400    1.04631
C     -8.13334   11.07384    0.90764
C     -6.74191    9.13785    0.93523
N     -5.63509    9.87043    1.08056
N     -6.65788    7.73096    0.89427
N     -5.50536    7.27806    0.65488
C     -5.39345    5.88093    0.77784
C     -4.14443    5.32492    0.47852
C     -6.41625    5.05715    1.27714
C     -6.16568    3.72316    1.51440
C     -3.90178    3.98310    0.72119
C     -4.89716    3.15931    1.27055
C     -8.02273    9.69119    0.86879
H     -3.13966   14.94031    2.16750
H     -1.05860   13.62191    1.69558
H     -5.33557   13.82561    1.93367
H     -1.28941   11.24531    1.00749
H     -7.05978   12.92387    1.06647
H     -9.10429   11.55135    0.83179
H     -3.36245    5.97485    0.09788
H     -7.38931    5.48540    1.48463
H     -6.96561    3.09184    1.88699
H     -2.91125    3.58066    0.53879
H     -8.88369    9.04043    0.77294
Li    -3.78270    9.17664    0.38416
C     12.37547    3.41107    6.35657
C     12.18210    2.03720    6.31307
C     11.48451    4.23490    5.68198
C     10.42496    3.65781    4.97957
N     10.23010    2.32586    4.94566
C     11.09460    1.54694    5.59768
C      9.43302    4.46991    4.23337
C      9.65129    5.81351    3.89677
C      8.66375    6.50645    3.20995
C      7.37088    4.50331    3.20800
N      8.31050    3.83256    3.87896
N      6.16480    3.86402    2.84875
N      6.20148    2.60540    2.89977
C      4.95838    1.97681    2.69222
C      4.96407    0.57782    2.68394
C      3.73803    2.66567    2.59776
C      2.55543    1.95847    2.53757
C      3.77139   -0.12379    2.62445
C      2.54147    0.55044    2.57248
C      7.48764    5.85276    2.86911
H     13.20352    3.83866    6.91149
H     12.85280    1.35674    6.82498
H     11.60835    5.31003    5.72385
H     10.91130    0.47546    5.54855
H     10.57717    6.30984    4.15817
H      8.81229    7.54776    2.94521
H      5.91449    0.05925    2.76468
H      3.73907    3.74889    2.58539
H      1.61795    2.49823    2.45004
H      3.78941   -1.20714    2.67379
H      6.67871    6.34589    2.34352
C     11.15851    1.85557   -0.50737
C     10.35945    2.95869   -0.23972
C     11.15585    0.79274    0.38612
C     10.35368    0.86688    1.52622
N      9.57115    1.93266    1.78203
C      9.58390    2.94599    0.91494
C     10.29547   -0.22444    2.52948
C     11.25142   -1.24719    2.60069
C     11.11319   -2.23145    3.57047
C      9.15495   -1.10281    4.33017
N      9.27272   -0.16168    3.39060
N      8.07032   -1.06912    5.23313
N      7.46063    0.03419    5.27331
C      6.29030    0.02756    6.05233
C      5.49825    1.17785    5.96358
C      5.83802   -1.07193    6.80252
C      4.58070   -1.03735    7.37144
C      4.22178    1.18620    6.49795
C      3.72704    0.06479    7.17738
C     10.03930   -2.17714    4.44806
H     11.77200    1.81757   -1.40105
H     10.33056    3.81011   -0.90990
H     11.75732   -0.08447    0.18146
H      8.94232    3.79248    1.15203
H     12.09363   -1.27293    1.92101
H     11.84059   -3.03317    3.63906
H      5.88902    2.03708    5.42980
H      6.46822   -1.94814    6.89532
H      4.21202   -1.89824    7.92191
H      3.59378    2.06424    6.38776
H      9.87882   -2.92229    5.21804
Li     8.50317    1.75415    3.70120
C      7.11354  -11.40284   14.65731
C      5.88649  -11.95759   14.32021
C      7.73494  -10.55195   13.75332
C      7.11004  -10.28268   12.53411
N      5.91485  -10.81121   12.21086
C      5.33010  -11.62796   13.08890
C      7.71057   -9.38250   11.51993
C      9.06720   -9.03039   11.53572
C      9.55078   -8.16190   10.56678
C      7.35410   -8.10451    9.63799
N      6.87788   -8.93373   10.57105
N      6.49942   -7.57868    8.64706
N      5.41258   -8.20026    8.49855
C      4.50270   -7.57794    7.62366
C      3.30421   -8.25889    7.38193
C      4.69011   -6.29542    7.08085
C      3.68001   -5.70478    6.35194
C      2.29452   -7.65710    6.64979
C      2.44976   -6.35870    6.13725
C      8.68028   -7.66664    9.60682
H      7.57930  -11.62228   15.61196
H      5.36504  -12.62651   14.99511
H      8.68100  -10.09144   14.01007
H      4.36699  -12.04137   12.79700
H      9.73743   -9.43255   12.28464
H     10.59651   -7.87393   10.56503
H      3.16923   -9.24587    7.81387
H      5.62684   -5.77872    7.25172
H      3.84213   -4.72111    5.92292
H      1.35213   -8.17786    6.51951
H      8.99649   -6.97461    8.83555
C      7.94251  -13.74853    7.95226
C      8.45434  -12.45824    7.93768
C      6.71485  -13.97612    8.55961
C      6.03559  -12.90343    9.13970
N      6.52782  -11.64994    9.11980
C      7.70753  -11.44625    8.53184
C      4.71953  -13.06243    9.80573
C      4.20558  -14.30803   10.19280
C      2.95867  -14.36271   10.80128
C      2.85862  -11.98657   10.63516
N      4.05027  -11.92698   10.03691
N      2.12354  -10.80289   10.86789
N      2.79391   -9.74198   10.75928
C      2.03065   -8.56091   10.84422
C      2.70425   -7.38295   10.50622
C      0.65715   -8.52018   11.13679
C     -0.03086   -7.32963   11.00716
C      1.99681   -6.20600   10.32679
C      0.61443   -6.16987   10.54334
C      2.25439  -13.18593   11.01682
H      8.48586  -14.56712    7.49277
H      9.40795  -12.23489    7.47334
H      6.29128  -14.97295    8.56067
H      8.07683  -10.42262    8.53290
H      4.76894  -15.21840   10.03234
H      2.54218  -15.31722   11.10455
H      3.77446   -7.42584   10.33995
H      0.14677   -9.42963   11.42957
H     -1.09858   -7.29669   11.20304
H      2.51236   -5.30508   10.00945
H      1.27465  -13.17036   11.47920
Li     5.25174  -10.22567   10.21196
C    -11.95688  -12.33783   15.12230
C    -12.62592  -11.59973   14.15552
C    -10.66361  -12.76944   14.86008
C    -10.07749  -12.45127   13.63347
N    -10.72186  -11.72728   12.69905
C    -11.96387  -11.31989   12.96466
C     -8.70015  -12.87248   13.28006
C     -8.01881  -13.88742   13.96532
C     -6.72312  -14.20770   13.58222
C     -6.90295  -12.55197   11.87525
N     -8.14553  -12.23036   12.24394
N     -6.28055  -11.86981   10.80914
N     -7.07006  -11.24212   10.05187
C     -6.43559  -10.43904    9.08683
C     -7.27022   -9.76876    8.18505
C     -5.05038  -10.20618    9.05072
C     -4.53244   -9.29249    8.15817
C     -6.74075   -8.85169    7.29278
C     -5.36396   -8.57532    7.27436
C     -6.13665  -13.51916   12.53009
H    -12.42983  -12.57026   16.07033
H    -13.63604  -11.24165   14.31792
H    -10.11859  -13.32649   15.61228
H    -12.45784  -10.73901   12.18843
H     -8.49144  -14.42590   14.77683
H     -6.17787  -14.98768   14.10265
H     -8.33917   -9.95378    8.22841
H     -4.40430  -10.74219    9.73540
H     -3.45972   -9.13193    8.12631
H     -7.40740   -8.30104    6.63809
H     -5.12564  -13.71832   12.19529
C    -10.83841  -15.91910    9.03032
C     -9.58253  -15.82394    9.61394
C    -11.63637  -14.78459    8.96841
C    -11.15400  -13.58614    9.49707
N     -9.93280  -13.49055   10.05657
C     -9.17735  -14.58839   10.10842
C    -11.94303  -12.33040    9.46758
C    -13.32219  -12.30011    9.21848
C    -13.97599  -11.07497    9.19920
C    -11.89040  -10.03930    9.71086
N    -11.25250  -11.21171    9.71611
N    -11.17565   -8.84594    9.94916
N    -10.03290   -9.01432   10.45533
C     -9.26116   -7.84254   10.55452
C     -7.93286   -8.02032   10.95743
C     -9.71044   -6.56374   10.18288
C     -8.81691   -5.51316   10.14275
C     -7.03444   -6.97035   10.87403
C     -7.45339   -5.70847   10.43184
C    -13.25302   -9.91322    9.43239
H    -11.19193  -16.86003    8.62271
H     -8.92561  -16.68342    9.68240
H    -12.61018  -14.83604    8.49702
H     -8.19631  -14.47889   10.56658
H    -13.87943  -13.21307    9.05121
H    -15.04213  -11.03016    9.00445
H     -7.61793   -9.00292   11.29086
H    -10.74613   -6.42546    9.89751
H     -9.15119   -4.53212    9.81875
H     -5.99576   -7.12336   11.14844
H    -13.71035   -8.93104    9.42173
Li    -9.52905  -11.46117   10.86783

